** written by FreeCAD inp file writer for CalculiX,Abaqus meshes
** highest dimension mesh elements only.

** Nodes
*Node, NSET=Nall
1, 200, -10, 10
2, 0, -10, 10
3, 200, 10, 10
4, 0, 10, 10
5, 200, 10, -10
6, 0, 10, -10
7, 200, -10, -10
8, 0, -10, -10
9, 200, -4.98, -10
10, 200, 0.02, -10
11, 200, 5.02, -10
12, 200, 10, -4.98
13, 200, 10, 0.02
14, 200, 10, 5.02
15, 200, 4.98, 10
16, 200, -0.02, 10
17, 200, -5.02, 10
18, 200, -10, 4.98
19, 200, -10, -0.02
20, 200, -10, -5.02
** ... 5248 like lines cut


** Volume elements
*Element, TYPE=C3D10, ELSET=Evolumes
1545, 684, 409, 845, 683, 2896, 2897, 2899, 2900, 2898, 2901
1546, 855, 843, 811, 783, 2902, 2903, 2905, 2906, 2904, 2907
1547, 344, 498, 127, 499, 2908, 2184, 1636, 2909, 2189, 2188
1548, 210, 712, 681, 201, 2910, 2911, 2913, 1146, 2912, 2914
1549, 133, 505, 134, 350, 2206, 2205, 1003, 1654, 2915, 1655
1550, 478, 184, 633, 183, 2124, 2674, 2916, 2123, 1054, 2675
1551, 95, 272, 96, 585, 1337, 1336, 964, 2529, 2917, 2530
1552, 390, 746, 432, 391, 2918, 2919, 1992, 1780, 2920, 1991
1553, 344, 498, 343, 127, 2908, 2921, 1638, 1636, 2184, 1634
1554, 266, 89, 579, 90, 1319, 2511, 2922, 1318, 958, 2512
1555, 344, 498, 807, 343, 2908, 2923, 2924, 1638, 2921, 2925
1556, 502, 544, 503, 811, 2418, 2417, 2201, 2927, 2926, 2928
1557, 706, 246, 401, 68, 2929, 2930, 2931, 2932, 1257, 1809
1558, 627, 471, 177, 626, 2933, 2103, 2657, 2658, 2934, 2653
1559, 680, 208, 681, 287, 2935, 2936, 2938, 2939, 2937, 2940
1560, 344, 498, 499, 807, 2908, 2189, 2909, 2924, 2923, 2941
1561, 681, 638, 562, 288, 2942, 2704, 2944, 2945, 2943, 2946
1562, 410, 409, 330, 845, 1839, 1836, 1837, 2947, 2897, 2948
1563, 693, 742, 774, 738, 2949, 2950, 2952, 2953, 2951, 2954
1564, 712, 713, 210, 681, 2955, 2956, 2910, 2911, 2957, 2913
** ... 2839 like lines cut

** Define element set Eall
*ELSET, ELSET=Eall
Evolumes



***********************************************************
** Element sets for materials and FEM element type (solid, shell, beam, fluid)
*ELSET,ELSET=MaterialSolidSolid
Evolumes

***********************************************************
** constraints fixed node sets
** ConstraintFixed
*NSET,NSET=ConstraintFixed
2,
4,
6,
8,
21,
22,
23,
24,
25,
26,
27,
28,
29,
30,
31,
32,
200,
201,
202,
203,
** ... 69 like lines cut

** Physical constants for SI(mm) unit system with Kelvins
*PHYSICAL CONSTANTS, ABSOLUTE ZERO=0, STEFAN BOLTZMANN=5.670374419e-11

***********************************************************
** Materials
** see information about units at file end
** FreeCAD material name: Steel-S235JO
** MaterialSolid
*MATERIAL, NAME=MaterialSolid
*ELASTIC
210000,0.3
*EXPANSION, ZERO=0
1.1E-05

***********************************************************
** Sections
*SOLID SECTION, ELSET=MaterialSolidSolid, MATERIAL=MaterialSolid

***********************************************************
** At least one step is needed to run an CalculiX analysis of FreeCAD
*STEP, INC=2000
*STATIC
1.0,1.0,1e-05,1.0

***********************************************************
** Fixed Constraints
** ConstraintFixed
*BOUNDARY
ConstraintFixed,1
ConstraintFixed,2
ConstraintFixed,3


***********************************************************
** constraints force node loads
** ConstraintForce
*CLOAD
** node loads on shape: Pad:Edge10
1,3,-207.5
3,3,-209.1666666667
15,3,-417.5
16,3,-416.6666666667
17,3,-415.8333333333
876,3,-836.6666666667
877,3,-833.3333333333
878,3,-833.3333333333
879,3,-830



***********************************************************
** Outputs --> frd file
*NODE FILE
U
*EL FILE
S, E
** outputs --> dat file
** reaction forces for Constraint fixed
*NODE PRINT, NSET=ConstraintFixed, TOTALS=ONLY
RF

*OUTPUT, FREQUENCY=1
***********************************************************
*END STEP

***********************************************************
** CalculiX Input file
**   written by    --> FreeCAD 1.1.0
**   written on    --> Fri Oct 17 00:17:04 2025
**   file name     --> fem test.FCStd
**   analysis name --> Analysis
**
**
***********************************************************
**  About units:
**  See ccx manual, ccx does not know about any unit.
**  Golden rule: The user must make sure that the numbers they provide have consistent units.
**  The user is the FreeCAD calculix writer module ;-)
**
**  The unit system which is used at Guido Dhondt's company: mm, N, s, K
**  Since Length and Mass are connected by Force, if Length is mm the Mass is in t to get N
**  The following units are used to write to inp file:
**
**  Length: mm (this includes the mesh geometry)
**  Mass: t
**  TimeSpan: s
**  Temperature: K
**
**  This leads to:
**  Force: N
**  Pressure: N/mm^2 == MPa (Young's Modulus has unit Pressure)
**  Density: t/mm^3
**  Gravity: mm/s^2
**  Thermal conductivity: t*mm/K/s^3 == as W/m/K == kW/mm/K
**  Specific Heat: mm^2/s^2/K = J/kg/K == kJ/t/K
**
